**
** Heading +++++++++++++++++++++++++++++++++++++++++++++++++
**
*Heading
Hash: ChdB26wI, Date: 06/21/2024, Unit system: M_KG_S_C
**
** Nodes +++++++++++++++++++++++++++++++++++++++++++++++++++
**
*Node
1, 6.00000000E-001, 2.10000000E-001
2, 6.00000000E-001, 1.90000000E-001
3, 2.48989795E-001, 2.10000000E-001
4, 2.48989795E-001, 1.90000000E-001
5, 6.00000000E-001, 2.04980000E-001
6, 6.00000000E-001, 1.99980000E-001
7, 6.00000000E-001, 1.94980000E-001
8, 2.54254948E-001, 2.10000000E-001
9, 2.59169091E-001, 2.10000000E-001
10, 2.64083234E-001, 2.10000000E-001
11, 2.69348387E-001, 2.10000000E-001
12, 2.74262530E-001, 2.10000000E-001
13, 2.79176672E-001, 2.10000000E-001
14, 2.84441826E-001, 2.10000000E-001
15, 2.89355968E-001, 2.10000000E-001
16, 2.94270111E-001, 2.10000000E-001
17, 2.99184254E-001, 2.10000000E-001
18, 3.04449407E-001, 2.10000000E-001
19, 3.09363550E-001, 2.10000000E-001
20, 3.14277693E-001, 2.10000000E-001
** ... 364 like lines cut
**
** Elements ++++++++++++++++++++++++++++++++++++++++++++++++
**
*Element, Type=CPS3, Elset=Shell_part-1
1, 5, 1, 76
2, 6, 5, 149
3, 7, 6, 150
4, 6, 149, 150
5, 2, 7, 151
6, 80, 2, 151
7, 7, 150, 151
8, 8, 3, 77
9, 9, 8, 152
10, 10, 9, 153
11, 9, 152, 153
12, 11, 10, 154
13, 10, 153, 154
14, 12, 11, 155
15, 11, 154, 155
16, 13, 12, 156
17, 12, 155, 156
18, 14, 13, 157
19, 13, 156, 157
20, 15, 14, 158
** ... 598 like lines cut
**
** Node sets +++++++++++++++++++++++++++++++++++++++++++++++
**
*Nset, Nset=Internal_Selection-1_Displacement_Rotation-1
3, 4, 77, 78, 79
*Nset, Nset=interface
1, 2, 3, 4, 5, 6, 7, 8, 9, 10, 11, 12, 13, 14, 15, 16, 
17, 18, 19, 20, 21, 22, 23, 24, 25, 26, 27, 28, 29, 30, 31, 32, 
33, 34, 35, 36, 37, 38, 39, 40, 41, 42, 43, 44, 45, 46, 47, 48, 
49, 50, 51, 52, 53, 54, 55, 56, 57, 58, 59, 60, 61, 62, 63, 64, 
65, 66, 67, 68, 69, 70, 71, 72, 73, 74, 75, 76, 80, 81, 82, 83, 
84, 85, 86, 87, 88, 89, 90, 91, 92, 93, 94, 95, 96, 97, 98, 99, 
100, 101, 102, 103, 104, 105, 106, 107, 108, 109, 110, 111, 112, 113, 114, 115, 
116, 117, 118, 119, 120, 121, 122, 123, 124, 125, 126, 127, 128, 129, 130, 131, 
132, 133, 134, 135, 136, 137, 138, 139, 140, 141, 142, 143, 144, 145, 146, 147, 
148
**
*INCLUDE, INPUT=interface.nam
** Element sets ++++++++++++++++++++++++++++++++++++++++++++
**
*Elset, Elset=Internal_Selection-1_Solid_Section-1
Shell_part-1
**
** Surfaces ++++++++++++++++++++++++++++++++++++++++++++++++
**
**
** Physical constants ++++++++++++++++++++++++++++++++++++++
**
**
** Materials +++++++++++++++++++++++++++++++++++++++++++++++
**
*Material, Name=Material-1
*Density
1000
*Elastic
5600000, 0.4
**
** Sections ++++++++++++++++++++++++++++++++++++++++++++++++
**
*Solid section, Elset=Internal_Selection-1_Solid_Section-1, Material=Material-1
1
**
** Pre-tension sections ++++++++++++++++++++++++++++++++++++
**
**
** Constraints +++++++++++++++++++++++++++++++++++++++++++++
**
**
** Surface interactions ++++++++++++++++++++++++++++++++++++
**
**
** Contact pairs +++++++++++++++++++++++++++++++++++++++++++
**
**
** Amplitudes ++++++++++++++++++++++++++++++++++++++++++++++
**
**
** Initial conditions ++++++++++++++++++++++++++++++++++++++
**
**
** Steps +++++++++++++++++++++++++++++++++++++++++++++++++++
**
**
** Step-1 ++++++++++++++++++++++++++++++++++++++++++++++++++
**
*Step, Inc=20000
*Dynamic, Direct, Alpha=0
0.001, 20
**
** Output frequency ++++++++++++++++++++++++++++++++++++++++
**
*Output, Frequency=1
**
** Boundary conditions +++++++++++++++++++++++++++++++++++++
**
*Boundary, op=New
** Name: Displacement_Rotation-1
*Boundary, Fixed
Internal_Selection-1_Displacement_Rotation-1, 1, 1
Internal_Selection-1_Displacement_Rotation-1, 2, 2
**
** Loads +++++++++++++++++++++++++++++++++++++++++++++++++++
*Cload, op=New
*Dload, op=New
** Name: Concentrated_Force-1
*Cload
 interface, 1, 0.0
 interface, 2, 0.0
 interface, 3, 0.0
**
** Defined fields ++++++++++++++++++++++++++++++++++++++++++
**
**
** History outputs +++++++++++++++++++++++++++++++++++++++++
**
**
** Field outputs +++++++++++++++++++++++++++++++++++++++++++
**
*Node file
RF, U, V
*El file
S, E
**
** End step ++++++++++++++++++++++++++++++++++++++++++++++++
**
*End step
