*INCLUDE, INPUT=all.msh
*INCLUDE, INPUT=fix.nam
*INCLUDE, INPUT=interface.nam
*MATERIAL, Name=EL
*HYPERELASTIC,NEO HOOKE
3846.15, 1.2E-4
*DENSITY
 10
*SOLID SECTION, Elset=Eall, Material=EL
*STEP, INC=1000000
*DYNAMIC, ALPHA=0.0, DIRECT
0.001, 10.0
*RESTART,WRITE,FREQUENCY=1
*BOUNDARY
Nfix, 1, 3
*BOUNDARY
Nall, 3
*CLOAD
 Ninterface, 1, 0.0
 Ninterface, 2, 0.0
 Ninterface, 3, 0.0
*NODE FILE
 U
*EL FILE
 S, E
*END STEP
